CM 12 ELEMENT LOG PERIODIC ANTENNA IN FREE SPACE
CM 78 SEGMENTS. SIGMA=O/L RECEIVING AND TRANS. PATTERNS.
CM DIPOLE LENGTH TO DIAMETER RATIO=150.
CE TAU=0.93. SIGMA=0.70. BOOM IMPEDANCE=50. OHMS.
GW     1     5   0.00000E+00 -1.00000E+00  0.00000E+00  0.00000E+00  1.00000E+00  0.00000E+00  6.67000E-03
GW     2     5  -7.52700E-01 -1.07530E+00  0.00000E+00 -7.52700E-01  1.07530E+00  0.00000E+00  7.17000E-03
GW     3     5  -1.56200E+00 -1.15620E+00  0.00000E+00 -1.56200E+00  1.15620E+00  0.00000E+00  7.71000E-03
GW     4     5  -2.43230E+00 -1.24320E+00  0.00000E+00 -2.43230E+00  1.24320E+00  0.00000E+00  8.29000E-03
GW     5     5  -3.36800E+00 -1.33680E+00  0.00000E+00 -3.36800E+00  1.33680E+00  0.00000E+00  8.91000E-03
GW     6     7  -4.37420E+00 -1.43740E+00  0.00000E+00 -4.37420E+00  1.43740E+00  0.00000E+00  9.58000E-03
GW     7     7  -5.45620E+00 -1.54560E+00  0.00000E+00 -5.45620E+00  1.54560E+00  0.00000E+00  1.03000E-02
GW     8     7  -6.61950E+00 -1.66190E+00  0.00000E+00 -6.61950E+00  1.66190E+00  0.00000E+00  1.10800E-02
GW     9     7  -7.87050E+00 -1.78700E+00  0.00000E+00 -7.87050E+00  1.78700E+00  0.00000E+00  1.19100E-02
GW    10     7  -9.21560E+00 -1.92150E+00  0.00000E+00 -9.21560E+00  1.92150E+00  0.00000E+00  1.28100E-02
GW    11     9  -1.06619E+01 -2.06620E+00  0.00000E+00 -1.06619E+01  2.06620E+00  0.00000E+00  1.37700E-02
GW    12     9  -1.22171E+01 -2.22170E+00  0.00000E+00 -1.22171E+01  2.22170E+00  0.00000E+00  1.48100E-02
GE     0     0   0.00000E+00  0.00000E+00  0.00000E+00  0.00000E+00  0.00000E+00  0.00000E+00  0.00000E+00
FR     0    40     0      0  4.62900E+01  5.66667E-02  4.85000E+01  0.00000E+00  0.00000E+00  0.00000E+00
TL     1     3     2      3 -5.00000E+01  0.00000E+00  0.00000E+00  0.00000E+00  0.00000E+00  0.00000E+00
TL     2     3     3      3 -5.00000E+01  0.00000E+00  0.00000E+00  0.00000E+00  0.00000E+00  0.00000E+00
TL     3     3     4      3 -5.00000E+01  0.00000E+00  0.00000E+00  0.00000E+00  0.00000E+00  0.00000E+00
TL     4     3     5      3 -5.00000E+01  0.00000E+00  0.00000E+00  0.00000E+00  0.00000E+00  0.00000E+00
TL     5     3     6      4 -5.00000E+01  0.00000E+00  0.00000E+00  0.00000E+00  0.00000E+00  0.00000E+00
TL     6     4     7      4 -5.00000E+01  0.00000E+00  0.00000E+00  0.00000E+00  0.00000E+00  0.00000E+00
TL     7     4     8      4 -5.00000E+01  0.00000E+00  0.00000E+00  0.00000E+00  0.00000E+00  0.00000E+00
TL     8     4     9      4 -5.00000E+01  0.00000E+00  0.00000E+00  0.00000E+00  0.00000E+00  0.00000E+00
TL     9     4    10      4 -5.00000E+01  0.00000E+00  0.00000E+00  0.00000E+00  0.00000E+00  0.00000E+00
TL    10     4    11      5 -5.00000E+01  0.00000E+00  0.00000E+00  0.00000E+00  0.00000E+00  0.00000E+00
TL    11     5    12      5 -5.00000E+01  0.00000E+00  0.00000E+00  0.00000E+00  0.00000E+00  2.00000E-02
EX     0     1     3     10  1.00000E+00  0.00000E+00  0.00000E+00  0.00000E+00  0.00000E+00  0.00000E+00
RP     0    37     1   1110  9.00000E+01  0.00000E+00 -5.00000E+00  0.00000E+00  0.00000E+00  0.00000E+00
EN     0     0     0      0  0.00000E+00  0.00000E+00  0.00000E+00  0.00000E+00  0.00000E+00  0.00000E+00
